3    
Iteration 35 Energy -92.35408412
C        0.0301790901   -0.0047030836   -0.0001097958
N       -1.0885745107    0.1980013307    0.0111865032
H        1.0634688771   -0.1919225009   -0.0105431525
3    
Iteration 34 Energy -92.35408412
C        0.0301790745   -0.0047030796   -0.0001097972
N       -1.0885746714    0.1980013592    0.0111865056
H        1.0634690534   -0.1919225334   -0.0105431535
3    
Iteration 33 Energy -92.35391182
C        0.0265276089   -0.0250074435    0.0000236967
N       -1.0864481983    0.2076831749    0.0111186386
H        1.0649940460   -0.1812999852   -0.0106087804
3    
Iteration 32 Energy -92.35335444
C        0.0226896281   -0.0465589456    0.0001649772
N       -1.0832955962    0.2177950897    0.0110375715
H        1.0656794246   -0.1698603979   -0.0106689939
3    
Iteration 31 Energy -92.35242048
C        0.0189051259   -0.0680737675    0.0003055041
N       -1.0792536266    0.2277257016    0.0109476173
H        1.0654219571   -0.1582761879   -0.0107195664
3    
Iteration 30 Energy -92.35112343
C        0.0151742406   -0.0895292276    0.0004451712
N       -1.0743412014    0.2374684286    0.0108490129
H        1.0642404173   -0.1465634548   -0.0107606291
3    
Iteration 29 Energy -92.34947895
C        0.0114981479   -0.1109036098    0.0005838656
N       -1.0685751475    0.2470166362    0.0107419729
H        1.0621504561   -0.1347372802   -0.0107922836
3    
Iteration 28 Energy -92.34750284
C        0.0078747935   -0.1321765613    0.0007215160
N       -1.0619759253    0.2563649665    0.0106267456
H        1.0591745883   -0.1228126590   -0.0108147067
3    
Iteration 27 Energy -92.34520982
C        0.0043011900   -0.1533289346    0.0008580669
N       -1.0545659623    0.2655088295    0.0105035974
H        1.0553382288   -0.1108041487   -0.0108281094
3    
Iteration 26 Energy -92.34261293
C        0.0007732085   -0.1743441372    0.0009934868
N       -1.0463698610    0.2744450721    0.0103728119
H        1.0506701090   -0.0987251887   -0.0108327438
3    
Iteration 25 Energy -92.33972373
C       -0.0027135482   -0.1952071975    0.0011277549
N       -1.0374135525    0.2831713531    0.0102346831
H        1.0452005573   -0.0865884094   -0.0108288831
3    
Iteration 24 Energy -92.33655281
C       -0.0061638602   -0.2159050170    0.0012608630
N       -1.0277238660    0.2916861836    0.0100895114
H        1.0389611827   -0.0744054205   -0.0108168196
3    
Iteration 23 Energy -92.33311042
C       -0.0095828877   -0.2364262306    0.0013928152
N       -1.0173279057    0.2999887380    0.0099375969
H        1.0319842498   -0.0621867612   -0.0107968572
3    
Iteration 22 Energy -92.32940719
C       -0.0129766234   -0.2567610222    0.0015236318
N       -1.0062526825    0.3080786463    0.0097792365
H        1.0243027624   -0.0499418778   -0.0107693134
3    
Iteration 21 Energy -92.32545482
C       -0.0163521326   -0.2769008626    0.0016533506
N       -0.9945245842    0.3159557077    0.0096147196
H        1.0159501733   -0.0376790989   -0.0107345154
3    
Iteration 20 Energy -92.32126678
C       -0.0197181004   -0.2968382609    0.0017820322
N       -0.9821690951    0.3236195975    0.0094443264
H        1.0069606521   -0.0254055904   -0.0106928037
3    
Iteration 19 Energy -92.31685901
C       -0.0230848887   -0.3165664292    0.0019097585
N       -0.9692102653    0.3310695084    0.0092683234
H        0.9973686105   -0.0131273330   -0.0106445270
3    
Iteration 18 Energy -92.31225066
C       -0.0264650407   -0.3360790466    0.0020366374
N       -0.9556706043    0.3383038377    0.0090869642
H        0.9872091015   -0.0008490450   -0.0105900468
3    
Iteration 17 Energy -92.30746487
C       -0.0298726783   -0.3553698246    0.0021627945
N       -0.9415704194    0.3453198200    0.0089004835
H        0.9765165541    0.0114257508   -0.0105297231
3    
Iteration 16 Energy -92.30252962
C       -0.0333243751   -0.3744324711    0.0022883819
N       -0.9269283082    0.3521133209    0.0087091037
H        0.9653261398    0.0236948964   -0.0104639306
3    
Iteration 15 Energy -92.29747848
C       -0.0368366019   -0.3932598509    0.0024135467
N       -0.9117596970    0.3586785149    0.0085130202
H        0.9536697553    0.0359570822   -0.0103930120
3    
Iteration 14 Energy -92.29235138
C       -0.0404302023   -0.4118451415    0.0025384855
N       -0.8960799758    0.3650079813    0.0083124355
H        0.9415836346    0.0482129064   -0.0103173660
3    
Iteration 13 Energy -92.28719517
C       -0.0441176427   -0.4301783165    0.0026632882
N       -0.8798977106    0.3710925499    0.0081074855
H        0.9290888098    0.0604615128   -0.0102372187
3    
Iteration 12 Energy -92.28206382
C       -0.0479261926   -0.4482527394    0.0027882224
N       -0.8632282045    0.3769213428    0.0078983876
H        0.9162278537    0.0727071428   -0.0101530551
3    
Iteration 11 Energy -92.27701826
C       -0.0518725687   -0.4660579655    0.0029134227
N       -0.8460800887    0.3824820372    0.0076852930
H        0.9030261140    0.0849516745   -0.0100651609
3    
Iteration 10 Energy -92.27212557
C       -0.0559766058   -0.4835841141    0.0030390605
N       -0.8284637711    0.3877609827    0.0074683784
H        0.8895138333    0.0971988777   -0.0099738840
3    
Iteration 9 Energy -92.26745745
C       -0.0602586172   -0.5008212972    0.0031653122
N       -0.8103905485    0.3927433581    0.0072478356
H        0.8757226222    0.1094536854   -0.0098795929
3    
Iteration 8 Energy -92.26308809
C       -0.0647420635   -0.5177609363    0.0032923948
N       -0.7918747185    0.3974131807    0.0070238946
H        0.8616902385    0.1217235018   -0.0097827344
3    
Iteration 7 Energy -92.25909119
C       -0.0694456561   -0.5343931465    0.0034204672
N       -0.7729290488    0.4017538327    0.0067967714
H        0.8474481615    0.1340150600   -0.0096836837
3    
Iteration 6 Energy -92.25553697
C       -0.0744202537   -0.5507212674    0.0035501009
N       -0.7535882686    0.4057451900    0.0065669386
H        0.8330819788    0.1463518235   -0.0095834846
3    
Iteration 5 Energy -92.25248767
C       -0.0795985224   -0.5666986629    0.0036803448
N       -0.7338172815    0.4093759806    0.0063340643
H        0.8184892603    0.1586984286   -0.0094808542
3    
Iteration 4 Energy -92.24999580
C       -0.0854321126   -0.5825104253    0.0038169895
N       -0.7138960867    0.4125802205    0.0061015138
H        0.8044016558    0.1713059510   -0.0093849484
3    
Iteration 3 Energy -92.24809654
C       -0.0904502569   -0.5974526465    0.0039407122
N       -0.6929757260    0.4155208748    0.0058592549
H        0.7884994394    0.1833075179   -0.0092664122
3    
Iteration 2 Energy -92.24681897
C       -0.0992410203   -0.6135686968    0.0041110878
N       -0.6741178430    0.4174925618    0.0056440091
H        0.7784323197    0.1974518812   -0.0092215420
3    
Iteration 1 Energy -92.24617540
C       -0.1012347799   -0.6247080814    0.0041842213
N       -0.6526923314    0.4198642270    0.0053988500
H        0.7590005679    0.2062196006   -0.0090495164
3    
Iteration 0 Energy -92.24604268
C       -0.1088783634   -0.6365101639    0.0043221742
N       -0.6393457902    0.4205365638    0.0052498438
H        0.7532976101    0.2173493463   -0.0090384631
3    
Iteration 1 Energy -92.24632346
C       -0.1162921456   -0.6510128127    0.0044700607
N       -0.6186302343    0.4219454641    0.0050168832
H        0.7399958364    0.2304430948   -0.0089533890
3    
Iteration 2 Energy -92.24714805
C       -0.1245652952   -0.6646401137    0.0046233080
N       -0.5972069198    0.4221447849    0.0047817596
H        0.7268456714    0.2438710750   -0.0088715127
3    
Iteration 3 Energy -92.24846519
C       -0.1336796159   -0.6787038892    0.0047877626
N       -0.5762854358    0.4221149944    0.0045531781
H        0.7150385083    0.2579646410   -0.0088073858
3    
Iteration 4 Energy -92.25021137
C       -0.1437084717   -0.6925595989    0.0049612563
N       -0.5555688086    0.4213107866    0.0043304051
H        0.7043507368    0.2726245585   -0.0087581065
3    
Iteration 5 Energy -92.25232116
C       -0.1547557972   -0.7063258655    0.0051454719
N       -0.5352998296    0.4197186964    0.0041161570
H        0.6951290833    0.2879829153   -0.0087280740
3    
Iteration 6 Energy -92.25473390
C       -0.1669065199   -0.7200381654    0.0053415014
N       -0.5156871517    0.4172677054    0.0039130421
H        0.6876671281    0.3041462063   -0.0087209886
3    
Iteration 7 Energy -92.25740030
C       -0.1801774713   -0.7336963115    0.0055495280
N       -0.4969149483    0.4139036495    0.0037233234
H        0.6821658761    0.3211684082   -0.0087392965
3    
Iteration 8 Energy -92.26028526
C       -0.1944902668   -0.7472596400    0.0057685073
N       -0.4790903232    0.4096125474    0.0035482363
H        0.6786540466    0.3390228388   -0.0087831887
3    
Iteration 9 Energy -92.26336523
C       -0.2096753183   -0.7606525101    0.0059962367
N       -0.4621955836    0.4044310347    0.0033874185
H        0.6769443583    0.3575972216   -0.0088501003
3    
Iteration 10 Energy -92.26662202
C       -0.2255185409   -0.7737843624    0.0062299585
N       -0.4460966565    0.3984328243    0.0032390645
H        0.6766886538    0.3767272844   -0.0089354681
3    
Iteration 11 Energy -92.27003685
C       -0.2418161796   -0.7865696651    0.0064670509
N       -0.4306035727    0.3917020305    0.0031007100
H        0.6774932089    0.3962433808   -0.0090342061
3    
Iteration 12 Energy -92.27358699
C       -0.2584034066   -0.7989371820    0.0067053838
N       -0.4155296031    0.3843135805    0.0029699683
H        0.6790064662    0.4159993477   -0.0091417972
3    
Iteration 13 Energy -92.27724482
C       -0.2751553673   -0.8108296276    0.0069433282
N       -0.4007185992    0.3763275543    0.0028448553
H        0.6809474230    0.4358778195   -0.0092546286
3    
Iteration 14 Energy -92.28097850
C       -0.2919786977   -0.8222004953    0.0071796490
N       -0.3860535295    0.3677899548    0.0027238798
H        0.6831056838    0.4557862867   -0.0093699739
3    
Iteration 15 Energy -92.28475376
C       -0.3088019397   -0.8330116382    0.0074133893
N       -0.3714489819    0.3587367501    0.0026059421
H        0.6853243781    0.4756506343   -0.0094857765
3    
Iteration 16 Energy -92.28853568
C       -0.3255681859   -0.8432312474    0.0076437804
N       -0.3568445586    0.3491973884    0.0024902462
H        0.6874862009    0.4954096051   -0.0096004717
3    
Iteration 17 Energy -92.29229056
C       -0.3422291521   -0.8528318452    0.0078701677
N       -0.3421960114    0.3391984234    0.0023761862
H        0.6894986200    0.5150091681   -0.0097127990
3    
Iteration 18 Energy -92.29598618
C       -0.3588457894   -0.8619174228    0.0080936969
N       -0.3276913302    0.3287185280    0.0022659153
H        0.6916105761    0.5345746410   -0.0098260574
3    
Iteration 19 Energy -92.29959077
C       -0.3753684200   -0.8704991848    0.0083138765
N       -0.3132733715    0.3178305705    0.0021584732
H        0.6937152479    0.5540443604   -0.0099387948
3    
Iteration 20 Energy -92.30307438
C       -0.3917317742   -0.8785779675    0.0085299968
N       -0.2988647029    0.3066316604    0.0020525656
H        0.6956699337    0.5733220533   -0.0100490075
3    
Iteration 21 Energy -92.30641058
C       -0.4078609095   -0.8860964732    0.0087409744
N       -0.2844316425    0.2951685492    0.0019476090
H        0.6973660085    0.5923036701   -0.0101550285
3    
Iteration 22 Energy -92.30957918
C       -0.4236623561   -0.8929939894    0.0089455078
N       -0.2699245499    0.2835221750    0.0018426877
H        0.6986603625    0.6108475605   -0.0102546406
3    
Iteration 23 Energy -92.31257045
C       -0.4390419703   -0.8991808783    0.0091421545
N       -0.2553040246    0.2717456269    0.0017371262
H        0.6994194514    0.6288109976   -0.0103457258
3    
Iteration 24 Energy -92.31538848
C       -0.4539189506   -0.9045614370    0.0093295903
N       -0.2404936667    0.2598829495    0.0016298863
H        0.6994860739    0.6460542336   -0.0104259218
3    
Iteration 25 Energy -92.31805227
C       -0.4682472469   -0.9090222453    0.0095067890
N       -0.2253760912    0.2479228516    0.0015197369
H        0.6986967945    0.6624751399   -0.0104929709
3    
Iteration 26 Energy -92.32058839
C       -0.4820228798   -0.9124524177    0.0096731960
N       -0.2097883760    0.2358116368    0.0014051442
H        0.6968847123    0.6780165271   -0.0105447852
3    
Iteration 27 Energy -92.32301276
C       -0.4952945868   -0.9147951238    0.0098290822
N       -0.1936468898    0.2234399051    0.0012856981
H        0.6940149330    0.6927309650   -0.0105812254
3    
Iteration 28 Energy -92.32531359
C       -0.5081995090   -0.9162170398    0.0099767150
N       -0.1770964302    0.2107143259    0.0011634118
H        0.6903693958    0.7068784600   -0.0106065720
3    
Iteration 29 Energy -92.32746645
C       -0.5209397261   -0.9171228376    0.0101201687
N       -0.1604236082    0.1976534430    0.0010413331
H        0.6864367908    0.7208451407   -0.0106279469
3    
Iteration 30 Energy -92.32945791
C       -0.5336148334   -0.9178217488    0.0102619571
N       -0.1437312048    0.1844355427    0.0009197640
H        0.6824194947    0.7347619524   -0.0106481662
3    
Iteration 31 Energy -92.33128381
C       -0.5461802063   -0.9183067171    0.0104015599
N       -0.1270534437    0.1711124986    0.0007988395
H        0.6783071066    0.7485699647   -0.0106668445
3    
Iteration 32 Energy -92.33294049
C       -0.5585139476   -0.9184517801    0.0105370639
N       -0.1101897816    0.1578853474    0.0006754408
H        0.6737771857    0.7619421789   -0.0106789498
3    
Iteration 33 Energy -92.33442362
C       -0.5704687210   -0.9179666690    0.0106655208
N       -0.0933930639    0.1444283289    0.0005538333
H        0.6689352415    0.7749140863   -0.0106857991
3    
Iteration 34 Energy -92.33572418
C       -0.5819295013   -0.9169828591    0.0107862788
N       -0.0758769218    0.1318525914    0.0004202993
H        0.6628798795    0.7865060139   -0.0106730233
3    
Iteration 35 Energy -92.33681390
C       -0.5925775896   -0.9145159035    0.0108913171
N       -0.0604516515    0.1167989099    0.0003210432
H        0.6581026977    0.7990927398   -0.0106788054
3    
Iteration 36 Energy -92.33763948
C       -0.6021840857   -0.9130846767    0.0109897417
N       -0.0417467404    0.1091485559    0.0001518141
H        0.6490042826    0.8053118670   -0.0106080009
3    
Iteration 37 Energy -92.33834748
C       -0.6122737579   -0.9115820835    0.0110931196
N       -0.0295155186    0.0936436298    0.0000895558
H        0.6468627330    0.8193142000   -0.0106491205
3    
Iteration 38 Energy -92.33890605
C       -0.6177185847   -0.9056768315    0.0111254287
N       -0.0143166512    0.0850164005   -0.0000368423
H        0.6371086924    0.8220361772   -0.0105550315
3    
Iteration 39 Energy -92.33936850
C       -0.6279355363   -0.9025354204    0.0112226453
N        0.0031259082    0.0715871341   -0.0001656382
H        0.6298830847    0.8323240325   -0.0105234522
3    
Iteration 40 Energy -92.33961779
C       -0.6346677285   -0.8968245928    0.0112699242
N        0.0186938337    0.0603771052   -0.0002841678
H        0.6210473513    0.8378232338   -0.0104522015
3    
Iteration 41 Energy -92.33970970
C       -0.6433680001   -0.8927720484    0.0113463611
N        0.0353782587    0.0483950285   -0.0004113452
H        0.6130631979    0.8457527660   -0.0104014610
3    
Iteration 42 Energy -92.33971254
C       -0.6433260280   -0.8921075970    0.0113428400
N        0.0360251279    0.0479694801   -0.0004164557
H        0.6123743567    0.8455138631   -0.0103928294
3    
Iteration 43 Energy -92.33971254
C       -0.6433258958   -0.8921076485    0.0113429378
N        0.0360248989    0.0479696740   -0.0004166697
H        0.6123744534    0.8455137207   -0.0103927132
