3    
Iteration 35 Energy -92.35408412
C        0.0301793671   -0.0047031294   -0.0001098002
N       -1.0885745489    0.1980012167    0.0111865049
H        1.0634686383   -0.1919223410   -0.0105431498
3    
Iteration 34 Energy -92.35408412
C        0.0301793672   -0.0047031295   -0.0001098002
N       -1.0885745480    0.1980012165    0.0111865049
H        1.0634686373   -0.1919223408   -0.0105431498
3    
Iteration 33 Energy -92.35391200
C        0.0265293792   -0.0249968395    0.0000236285
N       -1.0864496695    0.2076780723    0.0111186782
H        1.0649937468   -0.1813054866   -0.0106087518
3    
Iteration 32 Energy -92.35335480
C        0.0226914642   -0.0465487750    0.0001649103
N       -1.0832974523    0.2177902631    0.0110376141
H        1.0656794446   -0.1698657419   -0.0106689695
3    
Iteration 31 Energy -92.35242097
C        0.0189067151   -0.0680643451    0.0003054433
N       -1.0792556663    0.2277212849    0.0109476599
H        1.0654224077   -0.1582811936   -0.0107195483
3    
Iteration 30 Energy -92.35112405
C        0.0151758141   -0.0895202275    0.0004451125
N       -1.0743436317    0.2374642900    0.0108490585
H        1.0642412741   -0.1465683163   -0.0107606161
3    
Iteration 29 Energy -92.34947968
C        0.0114995950   -0.1108950186    0.0005838102
N       -1.0685777945    0.2470127406    0.0107420197
H        1.0621516560   -0.1347419758   -0.0107922750
3    
Iteration 28 Energy -92.34750367
C        0.0078761664   -0.1321683982    0.0007214634
N       -1.0619787672    0.2563613185    0.0106267935
H        1.0591760573   -0.1228171741   -0.0108147020
3    
Iteration 27 Energy -92.34521072
C        0.0043024689   -0.1533212060    0.0008580173
N       -1.0545689815    0.2655054288    0.0105036461
H        1.0553399691   -0.1108084767   -0.0108281085
3    
Iteration 26 Energy -92.34261388
C        0.0007744133   -0.1743368439    0.0009934400
N       -1.0463730096    0.2744419109    0.0103728608
H        1.0506720528   -0.0987293208   -0.0108327460
3    
Iteration 25 Energy -92.33972473
C       -0.0027124260   -0.1952003399    0.0011277110
N       -1.0374168030    0.2831684263    0.0102347322
H        1.0452026854   -0.0865923402   -0.0108288883
3    
Iteration 24 Energy -92.33655385
C       -0.0061628079   -0.2158985928    0.0012608219
N       -1.0277271766    0.2916834832    0.0100895601
H        1.0389634411   -0.0744091442   -0.0108168271
3    
Iteration 23 Energy -92.33311148
C       -0.0095819123   -0.2364202382    0.0013927770
N       -1.0173312500    0.2999862578    0.0099376449
H        1.0319866188   -0.0621902735   -0.0107968669
3    
Iteration 22 Energy -92.32940825
C       -0.0129757114   -0.2567554561    0.0015235962
N       -1.0062560204    0.3080763777    0.0097792834
H        1.0243051883   -0.0499451754   -0.0107693247
3    
Iteration 21 Energy -92.32545588
C       -0.0163512966   -0.2768957202    0.0016533178
N       -0.9945278944    0.3159536444    0.0096147653
H        1.0159526475   -0.0376821780   -0.0107345282
3    
Iteration 20 Energy -92.32126782
C       -0.0197173186   -0.2968335330    0.0017820019
N       -0.9821723348    0.3236177299    0.0094443704
H        1.0069631099   -0.0254084508   -0.0106928174
3    
Iteration 19 Energy -92.31686001
C       -0.0230841976   -0.3165621107    0.0019097310
N       -0.9692134162    0.3310678260    0.0092683656
H        0.9973710703   -0.0131299690   -0.0106445417
3    
Iteration 18 Energy -92.31225162
C       -0.0264644122   -0.3360751323    0.0020366125
N       -0.9556736395    0.3383023375    0.0090870043
H        0.9872115082   -0.0008514590   -0.0105900619
3    
Iteration 17 Energy -92.30746578
C       -0.0298721086   -0.3553663076    0.0021627721
N       -0.9415733137    0.3453184947    0.0089005213
H        0.9765188788    0.0114235590   -0.0105297384
3    
Iteration 16 Energy -92.30253047
C       -0.0333238655   -0.3744293454    0.0022883619
N       -0.9269310411    0.3521121640    0.0087091389
H        0.9653283631    0.0236929275   -0.0104639459
3    
Iteration 15 Energy -92.29747925
C       -0.0368361464   -0.3932571081    0.0024135291
N       -0.9117622440    0.3586775193    0.0085130526
H        0.9536718469    0.0359553350   -0.0103930268
3    
Iteration 14 Energy -92.29235207
C       -0.0404298125   -0.4118427782    0.0025384703
N       -0.8960823249    0.3650071407    0.0083124650
H        0.9415855939    0.0482113837   -0.0103173804
3    
Iteration 13 Energy -92.28719576
C       -0.0441173070   -0.4301763219    0.0026632753
N       -0.8798998356    0.3710918574    0.0081075119
H        0.9290905990    0.0604602107   -0.0102372323
3    
Iteration 12 Energy -92.28206432
C       -0.0479259161   -0.4482511078    0.0027882119
N       -0.8632300906    0.3769207918    0.0078984108
H        0.9162294632    0.0727060622   -0.0101530677
3    
Iteration 11 Energy -92.27701866
C       -0.0518723298   -0.4660567053    0.0029134143
N       -0.8460817420    0.3824816399    0.0076853129
H        0.9030275283    0.0849508116   -0.0100651724
3    
Iteration 10 Energy -92.27212587
C       -0.0559764753   -0.4835831653    0.0030390547
N       -0.8284651012    0.3877606691    0.0074683944
H        0.8895150329    0.0971982424   -0.0099738942
3    
Iteration 9 Energy -92.26745765
C       -0.0602585572   -0.5008206791    0.0031653087
N       -0.8103915792    0.3927431560    0.0072478478
H        0.8757235929    0.1094532693   -0.0098796016
3    
Iteration 8 Energy -92.26308820
C       -0.0647421243   -0.5177606558    0.0032923941
N       -0.7918754587    0.3974130776    0.0070239031
H        0.8616910395    0.1217233244   -0.0097827424
3    
Iteration 7 Energy -92.25909123
C       -0.0694457023   -0.5343931347    0.0034204677
N       -0.7729293949    0.4017538250    0.0067967752
H        0.8474485537    0.1340150558   -0.0096836880
3    
Iteration 6 Energy -92.25553694
C       -0.0744208567   -0.5507217551    0.0035501097
N       -0.7535885432    0.4057452262    0.0065669414
H        0.8330828564    0.1463522751   -0.0095834962
3    
Iteration 5 Energy -92.25248759
C       -0.0795977900   -0.5666987792    0.0036803373
N       -0.7338163241    0.4093762041    0.0063340528
H        0.8184875706    0.1586983213   -0.0094808353
3    
Iteration 4 Energy -92.24999571
C       -0.0854358853   -0.5825128229    0.0038170418
N       -0.7138974967    0.4125800169    0.0061015301
H        0.8044068385    0.1713085522   -0.0093850171
3    
Iteration 3 Energy -92.24809645
C       -0.0904458178   -0.5974509244    0.0039406557
N       -0.6929719012    0.4155216008    0.0058592097
H        0.7884911755    0.1833050698   -0.0092663105
3    
Iteration 2 Energy -92.24681893
C       -0.0992433528   -0.6135711987    0.0041111248
N       -0.6741200005    0.4174930256    0.0056440305
H        0.7784368098    0.1974539193   -0.0092216005
3    
Iteration 1 Energy -92.24617539
C       -0.1012343201   -0.6247049812    0.0041842020
N       -0.6526908910    0.4198623791    0.0053988428
H        0.7589986677    0.2062183484   -0.0090494899
3    
Iteration 0 Energy -92.24604268
C       -0.1088783634   -0.6365101639    0.0043221742
N       -0.6393457902    0.4205365638    0.0052498438
H        0.7532976101    0.2173493463   -0.0090384631
3    
Iteration 1 Energy -92.24632346
C       -0.1162937365   -0.6510174794    0.0044700996
N       -0.6186334883    0.4219478532    0.0050169077
H        0.7400006814    0.2304453723   -0.0089534525
3    
Iteration 2 Energy -92.24714803
C       -0.1245641379   -0.6646382853    0.0046232869
N       -0.5972055092    0.4221442242    0.0047817468
H        0.7268431036    0.2438698073   -0.0088714788
3    
Iteration 3 Energy -92.24846519
C       -0.1336798808   -0.6787038533    0.0047877653
N       -0.5762853569    0.4221147605    0.0045531783
H        0.7150386942    0.2579648390   -0.0088073887
3    
Iteration 4 Energy -92.25021141
C       -0.1437087824   -0.6925599879    0.0049612615
N       -0.5555684059    0.4213107681    0.0043304008
H        0.7043506448    0.2726249660   -0.0087581074
3    
Iteration 5 Energy -92.25232125
C       -0.1547563835   -0.7063264654    0.0051454811
N       -0.5352990707    0.4197185680    0.0041161493
H        0.6951289107    0.2879836436   -0.0087280755
3    
Iteration 6 Energy -92.25473405
C       -0.1669073861   -0.7200390026    0.0053415148
N       -0.5156860676    0.4172674830    0.0039130312
H        0.6876669102    0.3041472658   -0.0087209911
3    
Iteration 7 Energy -92.25740051
C       -0.1801786553   -0.7336973845    0.0055495459
N       -0.4969135800    0.4139032999    0.0037233100
H        0.6821656918    0.3211698307   -0.0087393010
3    
Iteration 8 Energy -92.26028555
C       -0.1944918494   -0.7472609769    0.0057685307
N       -0.4790887848    0.4096120231    0.0035482219
H        0.6786540907    0.3390247000   -0.0087831977
3    
Iteration 9 Energy -92.26336556
C       -0.2096770552   -0.7606539067    0.0059962621
N       -0.4621939575    0.4044304101    0.0033874036
H        0.6769444692    0.3575992428   -0.0088501108
3    
Iteration 10 Energy -92.26662243
C       -0.2255206513   -0.7737859666    0.0062299889
N       -0.4460948491    0.3984319900    0.0032390486
H        0.6766889570    0.3767297228   -0.0089354827
3    
Iteration 11 Energy -92.27003734
C       -0.2418185881   -0.7865714440    0.0064670855
N       -0.4306014615    0.3917010300    0.0031006916
H        0.6774935061    0.3962461602   -0.0090342221
3    
Iteration 12 Energy -92.27358756
C       -0.2584061158   -0.7989391428    0.0067054225
N       -0.4155272078    0.3843124121    0.0029699475
H        0.6790067801    0.4160024770   -0.0091418150
3    
Iteration 13 Energy -92.27724547
C       -0.2751584157   -0.8108317148    0.0069433711
N       -0.4007159922    0.3763261213    0.0028448334
H        0.6809478645    0.4358813398   -0.0092546497
3    
Iteration 14 Energy -92.28097924
C       -0.2919820498   -0.8222026876    0.0071796958
N       -0.3860506548    0.3677882787    0.0027238561
H        0.6831061611    0.4557901552   -0.0093699969
3    
Iteration 15 Energy -92.28475457
C       -0.3088056167   -0.8330139973    0.0074134404
N       -0.3714459041    0.3587348529    0.0026059172
H        0.6853249773    0.4756548906   -0.0094858027
3    
Iteration 16 Energy -92.28853656
C       -0.3255721524   -0.8432336895    0.0076438350
N       -0.3568412123    0.3491952391    0.0024902196
H        0.6874868213    0.4954141966   -0.0096004997
3    
Iteration 17 Energy -92.29229149
C       -0.3422333997   -0.8528343361    0.0078702256
N       -0.3421923971    0.3391959966    0.0023761579
H        0.6894992533    0.5150140857   -0.0097128286
3    
Iteration 18 Energy -92.29598717
C       -0.3588495432   -0.8619189814    0.0080937451
N       -0.3276857833    0.3287161483    0.0022658657
H        0.6916087830    0.5345785793   -0.0098260559
3    
Iteration 19 Energy -92.29959194
C       -0.3753697967   -0.8704963518    0.0083138785
N       -0.3132616946    0.3178280940    0.0021583569
H        0.6937049479    0.5540440040   -0.0099386805
3    
Iteration 20 Energy -92.30307623
C       -0.3917280839   -0.8785655408    0.0085298992
N       -0.2988388133    0.3066292572    0.0020522937
H        0.6956403538    0.5733120298   -0.0100486379
3    
Iteration 21 Energy -92.30641433
C       -0.4078503596   -0.8860663252    0.0087407201
N       -0.2843810663    0.2951627460    0.0019470829
H        0.6973048824    0.5922793254   -0.0101542481
3    
Iteration 22 Energy -92.30958712
C       -0.4236457016   -0.8929374440    0.0089450651
N       -0.2698337477    0.2835067580    0.0018417661
H        0.6985529058    0.6108064321   -0.0102532763
3    
Iteration 23 Energy -92.31258594
C       -0.4390246619   -0.8990888451    0.0091415412
N       -0.2551535355    0.2717081677    0.0017356536
H        0.6992516539    0.6287564237   -0.0103436399
3    
Iteration 24 Energy -92.31541526
C       -0.4539117062   -0.9044272989    0.0093288929
N       -0.2402609420    0.2598068477    0.0016276928
H        0.6992461048    0.6459961974   -0.0104230309
3    
Iteration 25 Energy -92.31809260
C       -0.4682650832   -0.9088449398    0.0095061668
N       -0.2250463081    0.2477881693    0.0015167523
H        0.6983848478    0.6624325166   -0.0104893642
3    
Iteration 26 Energy -92.32064044
C       -0.4820837563   -0.9122481540    0.0096729201
N       -0.2093721250    0.2356036684    0.0014015520
H        0.6965293378    0.6780202318   -0.0105409172
3    
Iteration 27 Energy -92.32306975
C       -0.4954210133   -0.9146120368    0.0098296205
N       -0.1931980451    0.2231556404    0.0012821013
H        0.6936925149    0.6928321425   -0.0105781669
3    
Iteration 28 Energy -92.32536863
C       -0.5084100284   -0.9161222936    0.0099785798
N       -0.1766725906    0.2103798226    0.0011603199
H        0.6901560755    0.7071182172   -0.0106053448
3    
Iteration 29 Energy -92.32751707
C       -0.5212223807   -0.9171332760    0.0101233069
N       -0.1600349008    0.1973084954    0.0010386734
H        0.6863307381    0.7212005268   -0.0106284254
3    
Iteration 30 Energy -92.32950401
C       -0.5339350071   -0.9178951281    0.0102657955
N       -0.1433621041    0.1840964118    0.0009172918
H        0.6823705677    0.7351744626   -0.0106495324
3    
Iteration 31 Energy -92.33132537
C       -0.5465047006   -0.9183925158    0.0104055028
N       -0.1266807504    0.1707866226    0.0007962670
H        0.6782589075    0.7489816394   -0.0106682149
3    
Iteration 32 Energy -92.33297729
C       -0.5588219715   -0.9185160700    0.0105407276
N       -0.1098174843    0.1575615463    0.0006728630
H        0.6737129123    0.7623302699   -0.0106800357
3    
Iteration 33 Energy -92.33445560
C       -0.5707501230   -0.9180012875    0.0106687567
N       -0.0930056738    0.1441273307    0.0005509854
H        0.6688292533    0.7752497030   -0.0106861872
3    
Iteration 34 Energy -92.33575158
C       -0.5821900498   -0.9169885194    0.0107891533
N       -0.0755184577    0.1315275764    0.0004178784
H        0.6627819640    0.7868366891   -0.0106734768
3    
Iteration 35 Energy -92.33683752
C       -0.5928045956   -0.9144867860    0.0108936646
N       -0.0600562152    0.1165244920    0.0003179849
H        0.6579342673    0.7993380402   -0.0106780946
3    
Iteration 36 Energy -92.33765088
C       -0.6023996581   -0.9130956492    0.0109921489
N       -0.0413319163    0.1089942645    0.0001479903
H        0.6488050309    0.8054771309   -0.0106065843
3    
Iteration 37 Energy -92.33812983
C       -0.6141507762   -0.9149227907    0.0111290357
N       -0.0315803553    0.0928779326    0.0001156579
H        0.6508045880    0.8234206042   -0.0107111387
3    
Iteration 38 Energy -92.33832041
C       -0.6137181647   -0.9131554863    0.0111155308
N       -0.0289230072    0.0935487984    0.0000848818
H        0.6477146283    0.8209824341   -0.0106668577
3    
Iteration 39 Energy -92.33849508
C       -0.6137597474   -0.9108236937    0.0111051824
N       -0.0250994947    0.0932057539    0.0000447819
H        0.6439326986    0.8189936860   -0.0106164094
3    
Iteration 40 Energy -92.33867418
C       -0.6152858832   -0.9086867413    0.0111118718
N       -0.0201864024    0.0905726238    0.0000035231
H        0.6405457421    0.8194898638   -0.0105818399
3    
Iteration 41 Energy -92.33889825
C       -0.6182775850   -0.9066216584    0.0111349170
N       -0.0139345323    0.0857198664   -0.0000421449
H        0.6372855738    0.8222775382   -0.0105592171
3    
Iteration 42 Energy -92.33916990
C       -0.6227674806   -0.9039111685    0.0111716244
N       -0.0052263456    0.0784238054   -0.0001039672
H        0.6330672827    0.8268631093   -0.0105341023
3    
Iteration 43 Energy -92.33945918
C       -0.6292065676   -0.8999141894    0.0112245445
N        0.0076611645    0.0682128315   -0.0001998610
H        0.6266188596    0.8330771041   -0.0104911286
3    
Iteration 44 Energy -92.33966313
C       -0.6370719546   -0.8949358396    0.0112894472
N        0.0238656380    0.0561175691   -0.0003253201
H        0.6182797730    0.8401940166   -0.0104305721
3    
Iteration 45 Energy -92.33970972
C       -0.6422025353   -0.8916842443    0.0113239140
N        0.0346663239    0.0485218140   -0.0003939406
H        0.6126096679    0.8445381765   -0.0103964185
3    
Iteration 46 Energy -92.33971028
C       -0.6429373401   -0.8914493598    0.0128049458
N        0.0360804687    0.0477520105   -0.0036159636
H        0.6119303279    0.8450730955   -0.0086554273
