3    
Iteration 35 Energy -92.35408411
C        0.0301790260   -0.0047030710   -0.0001097966
N       -1.0885747133    0.1980013729    0.0111865059
H        1.0634691438   -0.1919225557   -0.0105431544
3    
Iteration 34 Energy -92.35408411
C        0.0301790245   -0.0047030707   -0.0001097967
N       -1.0885747291    0.1980013757    0.0111865061
H        1.0634691611   -0.1919225588   -0.0105431545
3    
Iteration 33 Energy -92.35391181
C        0.0265276424   -0.0250073279    0.0000236958
N       -1.0864482001    0.2076831234    0.0111186388
H        1.0649940142   -0.1813000494   -0.0106087797
3    
Iteration 32 Energy -92.35335444
C        0.0226896438   -0.0465588313    0.0001649765
N       -1.0832956188    0.2177950438    0.0110375720
H        1.0656794315   -0.1698604663   -0.0106689936
3    
Iteration 31 Energy -92.35242047
C        0.0189051462   -0.0680736595    0.0003055033
N       -1.0792536466    0.2277256580    0.0109476177
H        1.0654219569   -0.1582762523   -0.0107195661
3    
Iteration 30 Energy -92.35112343
C        0.0151742587   -0.0895291241    0.0004451705
N       -1.0743412259    0.2374683880    0.0108490133
H        1.0642404237   -0.1465635178   -0.0107606289
3    
Iteration 29 Energy -92.34947895
C        0.0114981662   -0.1109035099    0.0005838649
N       -1.0685751713    0.2470165973    0.0107419733
H        1.0621504616   -0.1347373412   -0.0107922833
3    
Iteration 28 Energy -92.34750285
C        0.0078748119   -0.1321764649    0.0007215154
N       -1.0619759504    0.2563649295    0.0106267460
H        1.0591745950   -0.1228127184   -0.0108147065
3    
Iteration 27 Energy -92.34520983
C        0.0043012085   -0.1533288419    0.0008580663
N       -1.0545659883    0.2655087944    0.0105035979
H        1.0553382363   -0.1108042063   -0.0108281092
3    
Iteration 26 Energy -92.34261293
C        0.0007732271   -0.1743440483    0.0009934862
N       -1.0463698878    0.2744450389    0.0103728123
H        1.0506701172   -0.0987252445   -0.0108327436
3    
Iteration 25 Energy -92.33972373
C       -0.0027135294   -0.1952071122    0.0011277543
N       -1.0374135797    0.2831713218    0.0102346836
H        1.0452005656   -0.0865884633   -0.0108288830
3    
Iteration 24 Energy -92.33655282
C       -0.0061638412   -0.2159049355    0.0012608624
N       -1.0277238935    0.2916861542    0.0100895119
H        1.0389611912   -0.0744054725   -0.0108168194
3    
Iteration 23 Energy -92.33311043
C       -0.0095828684   -0.2364261529    0.0013928147
N       -1.0173279330    0.2999887103    0.0099375973
H        1.0319842579   -0.0621868112   -0.0107968571
3    
Iteration 22 Energy -92.32940720
C       -0.0129766040   -0.2567609482    0.0015236312
N       -1.0062527097    0.3080786203    0.0097792369
H        1.0243027703   -0.0499419258   -0.0107693132
3    
Iteration 21 Energy -92.32545483
C       -0.0163521128   -0.2769007923    0.0016533501
N       -0.9945246109    0.3159556833    0.0096147200
H        1.0159501803   -0.0376791448   -0.0107345152
3    
Iteration 20 Energy -92.32126679
C       -0.0197180806   -0.2968381943    0.0017820317
N       -0.9821691214    0.3236195748    0.0094443268
H        1.0069606585   -0.0254056343   -0.0106928036
3    
Iteration 19 Energy -92.31685902
C       -0.0230848687   -0.3165663663    0.0019097580
N       -0.9692102907    0.3310694873    0.0092683238
H        0.9973686159   -0.0131273748   -0.0106445269
3    
Iteration 18 Energy -92.31225067
C       -0.0264650204   -0.3360789873    0.0020366369
N       -0.9556706287    0.3383038181    0.0090869646
H        0.9872091056   -0.0008490847   -0.0105900466
3    
Iteration 17 Energy -92.30746488
C       -0.0298726579   -0.3553697690    0.0021627940
N       -0.9415704427    0.3453198019    0.0089004838
H        0.9765165571    0.0114257133   -0.0105297230
3    
Iteration 16 Energy -92.30252963
C       -0.0333243545   -0.3744324190    0.0022883814
N       -0.9269283301    0.3521133042    0.0087091040
H        0.9653261411    0.0236948610   -0.0104639305
3    
Iteration 15 Energy -92.29747849
C       -0.0368365814   -0.3932598023    0.0024135463
N       -0.9117597174    0.3586784995    0.0085130204
H        0.9536697552    0.0359570490   -0.0103930118
3    
Iteration 14 Energy -92.29235139
C       -0.0404301814   -0.4118450963    0.0025384850
N       -0.8960799943    0.3650079672    0.0083124357
H        0.9415836322    0.0482128753   -0.0103173658
3    
Iteration 13 Energy -92.28719518
C       -0.0441176216   -0.4301782746    0.0026632877
N       -0.8798977271    0.3710925370    0.0081074857
H        0.9290888052    0.0604614838   -0.0102372185
3    
Iteration 12 Energy -92.28206383
C       -0.0479261715   -0.4482527008    0.0027882220
N       -0.8632282188    0.3769213310    0.0078983878
H        0.9162278468    0.0727071160   -0.0101530549
3    
Iteration 11 Energy -92.27701827
C       -0.0518725475   -0.4660579299    0.0029134223
N       -0.8460801005    0.3824820263    0.0076852932
H        0.9030261045    0.0849516498   -0.0100651607
3    
Iteration 10 Energy -92.27212557
C       -0.0559765841   -0.4835840815    0.0030390601
N       -0.8284637800    0.3877609727    0.0074683786
H        0.8895138206    0.0971988550   -0.0099738838
3    
Iteration 9 Energy -92.26745745
C       -0.0602585955   -0.5008212675    0.0031653118
N       -0.8103905546    0.3927433489    0.0072478357
H        0.8757226066    0.1094536648   -0.0098795927
3    
Iteration 8 Energy -92.26308809
C       -0.0647420391   -0.5177609082    0.0032923944
N       -0.7918747198    0.3974131724    0.0070238946
H        0.8616902154    0.1217234820   -0.0097827341
3    
Iteration 7 Energy -92.25909119
C       -0.0694456379   -0.5343931235    0.0034204669
N       -0.7729290508    0.4017538245    0.0067967715
H        0.8474481452    0.1340150452   -0.0096836835
3    
Iteration 6 Energy -92.25553696
C       -0.0744202078   -0.5507212344    0.0035501002
N       -0.7535882500    0.4057451839    0.0065669384
H        0.8330819143    0.1463517967   -0.0095834837
3    
Iteration 5 Energy -92.25248766
C       -0.0795985661   -0.5666986743    0.0036803453
N       -0.7338173145    0.4093759679    0.0063340647
H        0.8184893372    0.1586984526   -0.0094808552
3    
Iteration 4 Energy -92.24999579
C       -0.0854318822   -0.5825103104    0.0038169865
N       -0.7138959415    0.4125802354    0.0061015121
H        0.8044012802    0.1713058211   -0.0093849437
3    
Iteration 3 Energy -92.24809652
C       -0.0904505455   -0.5974528324    0.0039407162
N       -0.6929759025    0.4155208533    0.0058592569
H        0.7884999046    0.1833077253   -0.0092664182
3    
Iteration 2 Energy -92.24681895
C       -0.0992408841   -0.6135686216    0.0041110860
N       -0.6741175992    0.4174925512    0.0056440065
H        0.7784319398    0.1974518166   -0.0092215375
3    
Iteration 1 Energy -92.24617538
C       -0.1012350323   -0.6247084365    0.0041842257
N       -0.6526922129    0.4198642748    0.0053988485
H        0.7590007017    0.2062199079   -0.0090495193
3    
Iteration 0 Energy -92.24604266
C       -0.1088783634   -0.6365101639    0.0043221742
N       -0.6393457902    0.4205365638    0.0052498438
H        0.7532976101    0.2173493463   -0.0090384631
3    
Iteration 1 Energy -92.24632344
C       -0.1162922011   -0.6510126804    0.0044700607
N       -0.6186302521    0.4219453507    0.0050168839
H        0.7399959098    0.2304430759   -0.0089533897
3    
Iteration 2 Energy -92.24714802
C       -0.1245652599   -0.6646401116    0.0046233076
N       -0.5972069401    0.4221448166    0.0047817597
H        0.7268456565    0.2438710412   -0.0088715124
3    
Iteration 3 Energy -92.24846516
C       -0.1336795920   -0.6787038632    0.0047877622
N       -0.5762854366    0.4221149990    0.0045531781
H        0.7150384851    0.2579646104   -0.0088073854
3    
Iteration 4 Energy -92.25021134
C       -0.1437084559   -0.6925595753    0.0049612560
N       -0.5555688092    0.4213107862    0.0043304051
H        0.7043507215    0.2726245353   -0.0087581062
3    
Iteration 5 Energy -92.25232113
C       -0.1547557823   -0.7063258436    0.0051454716
N       -0.5352998260    0.4197186956    0.0041161570
H        0.6951290648    0.2879828942   -0.0087280737
3    
Iteration 6 Energy -92.25473387
C       -0.1669065055   -0.7200381451    0.0053415012
N       -0.5156871436    0.4172677045    0.0039130420
H        0.6876671055    0.3041461868   -0.0087209883
3    
Iteration 7 Energy -92.25740027
C       -0.1801774578   -0.7336962930    0.0055495278
N       -0.4969149359    0.4139036483    0.0037233233
H        0.6821658502    0.3211683908   -0.0087392961
3    
Iteration 8 Energy -92.26028524
C       -0.1944902548   -0.7472596236    0.0057685071
N       -0.4790903074    0.4096125458    0.0035482361
H        0.6786540187    0.3390228240   -0.0087831883
3    
Iteration 9 Energy -92.26336521
C       -0.2096753085   -0.7606524961    0.0059962365
N       -0.4621955650    0.4044310322    0.0033874183
H        0.6769443300    0.3575972101   -0.0088500999
3    
Iteration 10 Energy -92.26662201
C       -0.2255185337   -0.7737843512    0.0062299584
N       -0.4460966361    0.3984328208    0.0032390643
H        0.6766886263    0.3767272766   -0.0089354678
3    
Iteration 11 Energy -92.27003685
C       -0.2418161766   -0.7865696567    0.0064670509
N       -0.4306035534    0.3917020247    0.0031007098
H        0.6774931865    0.3962433783   -0.0090342058
3    
Iteration 12 Energy -92.27358698
C       -0.2584034056   -0.7989371760    0.0067053838
N       -0.4155295812    0.3843135740    0.0029699681
H        0.6790064433    0.4159993481   -0.0091417969
3    
Iteration 13 Energy -92.27724482
C       -0.2751553695   -0.8108296245    0.0069433282
N       -0.4007185767    0.3763275464    0.0028448551
H        0.6809474028    0.4358778243   -0.0092546284
3    
Iteration 14 Energy -92.28097850
C       -0.2919787034   -0.8222004948    0.0071796491
N       -0.3860535068    0.3677899448    0.0027238796
H        0.6831056667    0.4557862961   -0.0093699737
3    
Iteration 15 Energy -92.28475376
C       -0.3088019487   -0.8330116402    0.0074133894
N       -0.3714489585    0.3587367383    0.0026059419
H        0.6853243637    0.4756506481   -0.0094857764
3    
Iteration 16 Energy -92.28853569
C       -0.3255681980   -0.8432312516    0.0076437806
N       -0.3568445346    0.3491973746    0.0024902460
H        0.6874861891    0.4954096232   -0.0096004717
3    
Iteration 17 Energy -92.29229056
C       -0.3422291672   -0.8528318514    0.0078701679
N       -0.3421959864    0.3391984075    0.0023761860
H        0.6894986101    0.5150091901   -0.0097127990
3    
Iteration 18 Energy -92.29598619
C       -0.3588457815   -0.8619173985    0.0080936967
N       -0.3276912480    0.3287185216    0.0022659145
H        0.6916104859    0.5345746231   -0.0098260563
3    
Iteration 19 Energy -92.29959079
C       -0.3753683235   -0.8704990296    0.0083138747
N       -0.3132730761    0.3178305913    0.0021584698
H        0.6937148561    0.5540441845   -0.0099387897
3    
Iteration 20 Energy -92.30307442
C       -0.3917315043   -0.8785774848    0.0085299916
N       -0.2988639458    0.3066316780    0.0020525573
H        0.6956689066    0.5733215530   -0.0100489940
3    
Iteration 21 Energy -92.30641068
C       -0.4078604031   -0.8860954036    0.0087409639
N       -0.2844300454    0.2951684728    0.0019475919
H        0.6973639051    0.5923026770   -0.0101550010
3    
Iteration 22 Energy -92.30957944
C       -0.4236616445   -0.8929920248    0.0089454909
N       -0.2699215888    0.2835217690    0.0018426572
H        0.6986566898    0.6108460019   -0.0102545932
3    
Iteration 23 Energy -92.31257097
C       -0.4390412436   -0.8991777159    0.0091421320
N       -0.2552989939    0.2717444835    0.0017370765
H        0.6994136940    0.6288089786   -0.0103456536
3    
Iteration 24 Energy -92.31538939
C       -0.4539185892   -0.9045568258    0.0093295651
N       -0.2404857583    0.2598804633    0.0016298113
H        0.6994778040    0.6460521087   -0.0104258215
3    
Iteration 25 Energy -92.31805367
C       -0.4682477767   -0.9090161224    0.0095067665
N       -0.2253646934    0.2479183305    0.0015196331
H        0.6986859267    0.6624735380   -0.0104928447
3    
Iteration 26 Energy -92.32059023
C       -0.4820249239   -0.9124452601    0.0096731853
N       -0.2097737762    0.2358044994    0.0014050174
H        0.6968721566    0.6780165069   -0.0105446479
3    
Iteration 27 Energy -92.32301479
C       -0.4952989285   -0.9147885754    0.0098290995
N       -0.1936309299    0.2234300227    0.0012855692
H        0.6940033149    0.6927342989   -0.0105811137
3    
Iteration 28 Energy -92.32531556
C       -0.5082068517   -0.9162135267    0.0099767791
N       -0.1770813523    0.2107024943    0.0011633015
H        0.6903616605    0.7068867785   -0.0106065257
3    
Iteration 29 Energy -92.32746826
C       -0.5209496649   -0.9171230857    0.0101202785
N       -0.1604097521    0.1976412253    0.0010412380
H        0.6864328735    0.7208576066   -0.0106279616
3    
Iteration 30 Energy -92.32945956
C       -0.5336261010   -0.9178241644    0.0102620914
N       -0.1437182051    0.1844233406    0.0009196781
H        0.6824177626    0.7347765701   -0.0106482147
3    
Iteration 31 Energy -92.33128530
C       -0.5461916142   -0.9183096177    0.0104016980
N       -0.1270400013    0.1711010756    0.0007987452
H        0.6783050719    0.7485842883   -0.0106668883
3    
Iteration 32 Energy -92.33294182
C       -0.5585247739   -0.9184536683    0.0105371910
N       -0.1101770363    0.1578731119    0.0006753578
H        0.6737752667    0.7619563027   -0.0106789939
3    
Iteration 33 Energy -92.33442479
C       -0.5704787362   -0.9179682443    0.0106656375
N       -0.0933776468    0.1444194626    0.0005537056
H        0.6689298394    0.7749245279   -0.0106857882
3    
Iteration 34 Energy -92.33572530
C       -0.5819390782   -0.9169812058    0.0107863759
N       -0.0758682100    0.1318338160    0.0004202906
H        0.6628807446    0.7865231360   -0.0106731116
3    
Iteration 35 Energy -92.33681582
C       -0.5925919920   -0.9145205646    0.0108914960
N       -0.0604157905    0.1168040355    0.0003206276
H        0.6580812390    0.7990922753   -0.0106785687
3    
Iteration 36 Energy -92.33764101
C       -0.6022078579   -0.9130822287    0.0109899903
N       -0.0417007966    0.1091277072    0.0001514080
H        0.6489821110    0.8053302677   -0.0106078433
3    
Iteration 37 Energy -92.33835365
C       -0.6122123901   -0.9114667716    0.0110919173
N       -0.0294209807    0.0936780567    0.0000883636
H        0.6467068273    0.8191644611   -0.0106467260
3    
Iteration 38 Energy -92.33891177
C       -0.6177218429   -0.9054960692    0.0111246312
N       -0.0141135364    0.0848765117   -0.0000384181
H        0.6369088357    0.8219953038   -0.0105526582
3    
Iteration 39 Energy -92.33937113
C       -0.6280874070   -0.9025858142    0.0112245379
N        0.0032943232    0.0714579344   -0.0001668839
H        0.6298665403    0.8325036261   -0.0105240990
3    
Iteration 40 Energy -92.33961722
C       -0.6346442226   -0.8968374667    0.0112697266
N        0.0186377011    0.0603865653   -0.0002835977
H        0.6210799780    0.8378266476   -0.0104525740
3    
Iteration 41 Energy -92.33971010
C       -0.6432328463   -0.8927840293    0.0113449388
N        0.0351912352    0.0485568617   -0.0004100464
H        0.6131150677    0.8456029138   -0.0104013375
3    
Iteration 42 Energy -92.33971251
C       -0.6433370278   -0.8921289781    0.0113430588
N        0.0360307215    0.0479775484   -0.0004165540
H        0.6123797628    0.8455271760   -0.0103929499
3    
Iteration 43 Energy -92.33971251
C       -0.6433366870   -0.8921292262    0.0113433601
N        0.0360299765    0.0479780855   -0.0004172103
H        0.6123801669    0.8455268869   -0.0103925949
